System Matpower Format/npcc_ny_lite_s11_dlr_summer_peak_q110_sensitivity.m
function mpc = npcc_ny_lite_s11_dlr_summer_peak_q110_sensitivity
%NPCC_NY_LITE_S11_DLR_SUMMER_PEAK_Q110_SENSITIVITY

%% MATPOWER Case Format : Version 2
mpc.version = '2';

%%-----  Power Flow Data  -----%%
%% system MVA base
mpc.baseMVA = 100;

%% bus data
%	bus_i	type	Pd	Qd	Gs	Bs	area	Vm	Va	baseKV	zone	Vmax	Vmin
mpc.bus = [
	37	2	0	0	0	0	2	0.981978781	18.3137895	345	70	1.1	0.9;
	38	2	0	0	0	0	2	1.0021087	23.0827566	345	70	1.1	0.9;
	39	2	458.73926	0	0	0	2	0.95009103	15.5479285	345	71	1.1	0.9;
	40	1	0	0	0	0	2	1.01046367	20.3424367	230	70	1.1	0.9;
	41	2	1763.06079	0	0	0	2	1.06553514	17.4948796	115	70	1.1	0.9;
	42	1	445.802514	0	0	0	2	1.09994806	22.0746485	115	70	1.1	0.9;
	43	1	0	0	0	0	2	1.0286057	23.190378	345	69	1.1	0.9;
	44	1	0	0	0	0	2	0.983708952	23.4055683	230	69	1.1	0.9;
	45	1	1249.5819	0	0	0	2	0.982859473	20.5642008	115	69	1.1	0.9;
	46	1	14.4961546	0	0	0	2	0.967073479	62.2518333	115	68	1.1	0.9;
	47	1	332.781287	0	0	0	2	1.09999036	74.0854432	230	68	1.1	0.9;
	48	1	0	0	0	0	2	1.00333598	82.0133289	230	68	1.1	0.9;
	49	1	131.095658	0	0	0	2	0.962732319	68.4132589	115	68	1.1	0.9;
	50	1	0	0	0	0	2	1.09462978	25.2132124	345	67	1.1	0.9;
	51	1	1209.77452	0	0	0	2	1.09993404	23.306018	115	67	1.1	0.9;
	52	1	0	0	0	0	2	1.09409367	18.2525769	345	66	1.1	0.9;
	53	1	1788.1464	0	0	0	2	1.09795569	14.3092149	115	66	1.1	0.9;
	54	1	19.9961721	0	0	0	2	1.09986755	22.0242535	230	65	1.1	0.9;
	55	1	938.820282	0	0	0	2	1.09965876	19.3390394	230	65	1.1	0.9;
	56	1	198.780107	0	0	0	2	1.07566167	20.5909391	230	65	1.1	0.9;
	57	1	277.367591	0	0	0	2	1.0893341	17.3248975	115	65	1.1	0.9;
	58	1	97.0786567	0	0	0	2	1.07283884	16.9701254	230	65	1.1	0.9;
	59	1	814.767297	0	0	0	2	1.07223002	14.4260894	115	65	1.1	0.9;
	60	1	0	0	0	0	2	1.08770598	19.3009041	230	65	1.1	0.9;
	61	1	273.900495	0	0	0	2	1.08836199	18.6351099	115	65	1.1	0.9;
	62	1	0	0	0	0	2	1.07759794	17.1874322	230	65	1.1	0.9;
	63	1	0	0	0	0	2	1.06388613	12.4334894	230	67	1.1	0.9;
	64	1	236.659038	0	0	0	2	1.06055729	8.72076972	115	67	1.1	0.9;
	65	1	150.601206	0	0	0	2	1.07454338	10.7305436	115	67	1.1	0.9;
	66	1	0	0	0	0	2	1.06379826	15.4338365	345	67	1.1	0.9;
	67	1	0	0	0	0	2	1.06897825	14.3753755	230	67	1.1	0.9;
	68	1	349.196203	0	0	0	2	1.07052594	12.6073694	115	67	1.1	0.9;
	69	1	0	0	0	0	2	1.05764787	17.7922549	345	67	1.1	0.9;
	70	1	0	0	0	0	2	1.07686291	16.0494811	230	67	1.1	0.9;
	71	1	613.989531	0	0	0	2	1.07774931	17.3864498	115	67	1.1	0.9;
	72	1	0	0	0	0	2	1.08169143	18.2831852	115	67	1.1	0.9;
	73	3	1146.84815	0	0	1200	3	0.92572542	10.347898	345	71	1.1	0.9;
	74	1	640.25	0	0	0	3	0.911664383	4.90103637	345	73	1.1	0.9;
	75	1	0	0	0	0	3	0.903817423	4.57172641	138	71	1.1	0.9;
	76	2	688.10889	0	0	0	3	0.902828645	4.5426742	345	71	1.1	0.9;
	77	1	0	0	0	0	3	0.90804109	4.16290346	345	73	1.1	0.9;
	78	1	1366.5224	0	0	0	3	0.900045147	0.0743507217	345	72	1.1	0.9;
	79	1	4603.60669	0	0	0	3	0.900632977	5.32893142	22	74	1.1	0.9;
	80	1	5208.3862	-17.6843147	0	0	3	0.903991118	-5.70482295	138	75	1.1	0.9;
	81	2	1023.02371	0	0	0	3	0.900765091	-1.96733568	345	74	1.1	0.9;
	82	1	4603.6067	0	0	0	3	0.900075377	-3.78728812	22	74	1.1	0.9;
	9001	1	0	0	0	0	3	0.944259727	14.3615879	345	71	1.1	0.9;
	9002	1	0	0	441.236871	-13.0688419	3	0.915218115	6.13045629	345	71	1.1	0.9;
	9003	1	0	-0	0	0	3	0.900156609	2.13259601	345	75	1.1	0.9;
];

%% generator data
%	bus	Pg	Qg	Qmax	Qmin	Vg	mBase	status	Pmax	Pmin	Pc1	Pc2	Qc1min	Qc1max	Qc2min	Qc2max	ramp_agc	ramp_10	ramp_30	ramp_q	apf
mpc.gen = [
	37	723.288678	510.997154	514.05	-431.2	0.981978781	100	1	723.3	253.7	0	0	0	0	0	0	0	0	0	0	0;
	43	650.554877	-87.292	-87.292	-87.292	1.0286057	100	1	869.7	70.1	0	0	0	0	0	0	0	0	0	0	0;
	9003	3257.07809	-934.134	-934.134	-934.134	0.900156609	100	1	3257.1	1440.3	0	0	0	0	0	0	0	0	0	0	0;
	80	1176.98057	506.285445	765.2	-647.5	0.903991118	100	1	1177	120.6	0	0	0	0	0	0	0	0	0	0	0;
	44	844.332436	-137.048	-137.048	-137.048	0.983708952	100	1	1135.5	73.1	0	0	0	0	0	0	0	0	0	0	0;
	72	192.995277	41.3499212	134.4	-106.2	1.08169143	100	1	193	16.6	0	0	0	0	0	0	0	0	0	0	0;
	68	271.694302	4.99504343	192.75	-167.92	1.07052594	100	1	271.7	55.3	0	0	0	0	0	0	0	0	0	0	0;
	79	5831.18866	11.0406574	4183.525	-3513.15	0.900632977	100	1	5831.2	1815.2	0	0	0	0	0	0	0	0	0	0	0;
	65	111.99775	2.20667677	72.8	-61.6	1.07454338	100	1	112	32	0	0	0	0	0	0	0	0	0	0	0;
	56	338.454281	7.13752497	255.25	-220.84	1.07566167	100	1	351.5	142.7	0	0	0	0	0	0	0	0	0	0	0;
	50	3044.57931	2186.82904	2188.425	-1846.05	1.09462978	100	1	3044.6	1919.5	0	0	0	0	0	0	0	0	0	0	0;
	47	70.3937026	316.438915	363.8	-287	1.09999036	100	1	521.4	1.5	0	0	0	0	0	0	0	0	0	0	0;
	57	213.066002	13.5292037	165.975	-154.91	1.0893341	100	1	221.3	104	0	0	0	0	0	0	0	0	0	0	0;
	61	306.871397	-17.8124566	230.75	-191.32	1.08836199	100	1	323.1	63	0	0	0	0	0	0	0	0	0	0	0;
	60	163.054539	18.4504487	121.3	-95.3	1.08770598	100	1	173.3	9	0	0	0	0	0	0	0	0	0	0	0;
	42	1546.78677	240.449051	1160.1	-1082.76	1.09994806	100	1	1546.8	981.4	0	0	0	0	0	0	0	0	0	0	0;
	81	1554.78268	-202.236056	1102.75	-898.04	0.900765091	100	1	1554.8	701.7	0	0	0	0	0	0	0	0	0	0	0;
	53	724.994034	100.39793	510.95	-408.7	1.09795569	100	1	725	498.1	0	0	0	0	0	0	0	0	0	0	0;
	71	47.6992787	18.6203348	33.4	-26.2	1.07774931	100	1	47.7	42	0	0	0	0	0	0	0	0	0	0	0;
	56	88.5143301	0	0	0	1.07566167	100	1	94.4	0	0	0	0	0	0	0	0	0	0	0	0;
	61	0	4.07894173	66.1	-51.9	1.08836199	100	1	0	0	0	0	0	0	0	0	0	0	0	0	0;
	53	0	25.1473343	50	0	1.09795569	100	1	0	0	0	0	0	0	0	0	0	0	0	0	0;
	51	883.294153	148.44813	618.3	-485.8	1.09993404	100	1	883.3	662	0	0	0	0	0	0	0	0	0	0	0;
	47	0	70.3089269	100	0	1.09999036	100	1	0	0	0	0	0	0	0	0	0	0	0	0	0;
	37	0	149.51555	150	0	0.981978781	100	1	0	0	0	0	0	0	0	0	0	0	0	0	0;
	41	338.793763	253.704376	254.1	-237.16	1.06553514	100	1	338.8	101	0	0	0	0	0	0	0	0	0	0	0;
	39	0	19.4695102	250	0	0.95009103	100	1	0	0	0	0	0	0	0	0	0	0	0	0	0;
	76	723.786287	-179.217308	506.8	-398	0.902828645	100	1	723.8	122	0	0	0	0	0	0	0	0	0	0	0;
	73	2011.97815	-1220.67532	1384.9	-1222.2	0.92572542	100	1	2012	666	0	0	0	0	0	0	0	0	0	0	0;
	73	0	0.0175445291	30	0	0.92572542	100	1	0	0	0	0	0	0	0	0	0	0	0	0	0;
	75	59.6983909	12.0003523	41.8	-32.8	0.903817423	100	1	59.7	7	0	0	0	0	0	0	0	0	0	0	0;
	81	0	191.270533	550	0	0.900765091	100	1	0	0	0	0	0	0	0	0	0	0	0	0	0;
	82	1247.48401	191.854021	873.3	-686.1	0.900075377	100	1	1247.5	495.5	0	0	0	0	0	0	0	0	0	0	0;
	9003	0	954.222	954.222	954.222	0.900156609	100	1	0	0	0	0	0	0	0	0	0	0	0	0	0;
	48	14.112514	74.5637088	74.6	-58.6	1.00333598	100	1	106.5	0	0	0	0	0	0	0	0	0	0	0	0;
	39	1264.78993	-736.767654	946.4	-878.92	0.95009103	100	1	1264.8	856	0	0	0	0	0	0	0	0	0	0	0;
	76	0	24.1802268	100	0	0.902828645	100	1	0	0	0	0	0	0	0	0	0	0	0	0	0;
	38	999.980639	101.929265	700	-550	1.0021087	100	1	1000	4	0	0	0	0	0	0	0	0	0	0	0;
	43	0	-721.356	-721.356	-721.356	1.0286057	100	1	0	0	0	0	0	0	0	0	0	0	0	0	0;
	54	1639.04848	-15.1798316	1242.9	-976.2	1.09986755	100	1	1775.1	15	0	0	0	0	0	0	0	0	0	0	0;
	55	830.434579	-5.62594225	626	-491.6	1.09965876	100	1	894	10	0	0	0	0	0	0	0	0	0	0	0;
	48	1450.00002	0	0	0	1.00333598	100	1	1450.001	1449.999	0	0	0	0	0	0	0	0	0	0	0;
	37	-234.94395	0	0	0	0.981978781	100	1	-234.943	-234.945	0	0	0	0	0	0	0	0	0	0	0;
	73	-352.415949	0	0	0	0.92572542	100	1	-352.415	-352.417	0	0	0	0	0	0	0	0	0	0	0;
	54	-386.03995	0	0	0	1.09986755	100	1	-386.039	-386.041	0	0	0	0	0	0	0	0	0	0	0;
	66	-75.5229479	0	0	0	1.06379826	100	1	-75.522	-75.524	0	0	0	0	0	0	0	0	0	0	0;
	67	-32.3669475	0	0	0	1.06897825	100	1	-32.366	-32.368	0	0	0	0	0	0	0	0	0	0	0;
	75	-53.9449486	0	0	0	0.903817423	100	1	-53.944	-53.946	0	0	0	0	0	0	0	0	0	0	0;
	81	-53.9449475	0	0	0	0.900765091	100	1	-53.944	-53.946	0	0	0	0	0	0	0	0	0	0	0;
];

%% branch data
%	fbus	tbus	r	x	b	rateA	rateB	rateC	ratio	angle	status	angmin	angmax	Pf	Qf	Pt	Qt
mpc.branch = [
	37	38	0.0016	0.0493662685	0.25	2500	0	0	0	0	1	-360	360	-166.6236	-39.7940	167.0970	29.7951;
	37	39	8e-05	0.00159134742	0.72	2500	0	0	0	0	1	-360	360	2924.0189	1854.2968	-2913.9652	-1721.5207;
	37	40	0.0009	0.0315	0.06	2500	0	0	0	0	1	-360	360	-113.8956	-86.4630	114.0818	87.0261;
	37	43	0.00013	0.00404288264	1.965	2500	0	0	0	0	1	-360	360	-2155.1550	-1067.5271	2162.6925	1103.2453;
	38	69	0.0043	0.0485	0.79	2500	0	0	0	0	1	-360	360	190.6507	-162.0156	-188.4534	102.9475;
	39	73	0.00019	0.00393535917	0.435	2500	0	0	0	0	1	-360	360	2053.6369	561.4434	-2044.0491	-401.1292;
	39	73	0.00019	0.00393535917	0.435	2500	0	0	0	0	1	-360	360	2053.6369	561.4434	-2044.0491	-401.1292;
	40	44	0.0008	0.0113974883	0.6	2500	0	0	0	0	1	-360	360	-446.3078	250.3545	448.4871	-278.9679;
	41	42	0.0018	0.0089	0.07	2500	0	0	0	0	1	-360	360	-1082.0596	-155.0856	1100.9843	240.4491;
	41	45	0.0776	0.2241	0.13	2500	0	0	0	0	1	-360	360	-9.9814	36.0569	11.3391	-45.7951;
	43	44	0	0.011	0	2500	0	0	0	0	1	-360	360	-34.5479	419.8926	34.5479	-401.4381;
	43	50	0.00025	0.00576325823	0.6	2500	0	0	0	0	1	-360	360	-738.7949	-1165.8930	743.1239	1198.0041;
	43	50	0.00025	0.00576325823	0.6	2500	0	0	0	0	1	-360	360	-738.7949	-1165.8930	743.1239	1198.0041;
	44	45	0	0.00440846246	0	2500	0	0	0	0	1	-360	360	1087.1705	45.9179	-1087.1705	8.0236;
	44	48	0.015	0.105	0.79	2500	0	0	0	0	1	-360	360	-725.8731	497.4401	852.0239	307.6284;
	45	46	0.1235	0.3548	0.16	2500	0	0	0	0	1	-360	360	-136.4967	111.9935	178.6403	-6.1300;
	45	51	0.0605	0.1896	0.08	2500	0	0	0	0	1	-360	360	-42.1418	-50.4540	44.6135	49.4964;
	45	71	0.1751	0.5575	0.12	2500	0	0	0	0	1	-360	360	4.8880	-23.7680	-4.2593	13.0046;
	46	47	0.0632	0.121	0.05	2500	0	0	0	0	1	-360	360	-177.5712	2.8625	198.8975	32.6049;
	46	49	0.164	0.578	0.06	2500	0	0	0	0	1	-360	360	-15.5653	3.2676	16.0549	-7.1285;
	47	48	0	0.033	0	2500	0	0	0	0	1	-360	360	-461.2851	354.1429	461.2851	-261.9046;
	50	51	0	0.00445147185	0	2500	0	0	0	0	1	-360	360	900.1656	-115.4501	-900.1656	146.0485;
	50	52	0.002	0.022	1.28	2500	0	0	0	0	1	-360	360	658.1659	-93.7291	-650.9306	20.0212;
	51	53	0.0844	0.2161	0.22	2500	0	0	0	0	1	-360	360	78.4977	-36.0840	-73.8372	21.4477;
	51	72	0.0051	0.0232	0.3	2500	0	0	0	0	1	-360	360	450.5740	-11.0128	-442.0139	14.2542;
	52	53	0.00014	0.00834382162	0	2500	0	0	0	0	1	-360	360	989.5353	-33.1597	-988.3888	101.4888;
	53	55	0.03	0.107	0.3	789.941803	0	0	0	0	1	-360	360	-91.0454	10.0418	93.3051	-38.2036;
	53	65	0.035	0.08	0.05	2500	0	0	0	0	1	-360	360	90.1191	-7.4330	-87.7555	6.9352;
	54	56	0.01	0.008	0.07	789.941803	0	0	0	0	1	-360	360	308.9504	-53.0041	-300.8634	51.1900;
	54	62	0.008	0.069	0.13	789.941803	0	0	0	0	1	-360	360	147.6735	16.6303	-146.1916	-19.2605;
	55	57	0.0074	0.04	0.02	789.941803	0	0	0	0	1	-360	360	107.1788	9.1969	-106.4692	-7.7572;
	55	59	0.016	0.0817	0.04	789.941803	0	0	0	0	1	-360	360	126.9957	14.9315	-124.8220	-8.5495;
	56	58	0.002	0.015	0.11	2500	0	0	0	0	1	-360	360	482.0395	-35.0358	-478.0089	52.5717;
	57	59	0.014	0.068	0.03	2500	0	0	0	0	1	-360	360	89.1800	9.4574	-88.2268	-8.3321;
	58	60	0.0035	0.0344	0.27	2500	0	0	0	0	1	-360	360	-140.9308	-44.7594	141.5608	19.4405;
	58	62	0.002	0.018	0.03	2500	0	0	0	0	1	-360	360	-27.1706	-27.0266	27.1946	23.7738;
	59	61	0.068	0.143	0.06	2500	0	0	0	0	1	-360	360	-52.6869	11.7099	54.4647	-14.9740;
	62	63	0.0129	0.0803	0.15	2500	0	0	0	0	1	-360	360	118.9971	-4.5134	-117.4220	-2.8804;
	63	64	0	0.046	0	2500	0	0	0	0	1	-360	360	158.8316	12.8468	-158.8316	-2.5270;
	63	67	0.012	0.093	0.18	2500	0	0	0	0	1	-360	360	-41.4096	-9.9664	41.5914	-9.0957;
	64	65	0.035	0.08	0.05	2500	0	0	0	0	1	-360	360	-48.4187	0.7062	49.1520	-4.7285;
	64	68	0.0988	0.231	0.13	2500	0	0	0	0	1	-360	360	-29.4088	1.8208	30.2417	-14.6336;
	66	67	0	0.0231	0	2500	0	0	0	0	1	-360	360	90.9376	-23.0148	-90.9376	24.8110;
	66	69	0.0018	0.0274	0.27	2500	0	0	0	0	1	-360	360	-166.4606	23.0148	166.9246	-46.3297;
	67	68	0	0.049	0	2500	0	0	0	0	1	-360	360	72.0547	-2.2646	-72.0547	4.4931;
	67	70	0.007	0.0619	0.12	2500	0	0	0	0	1	-360	360	-55.0754	-13.4506	55.2639	1.3032;
	68	71	0.1203	0.2048	0.07	2500	0	0	0	0	1	-360	360	-35.6889	15.1355	37.4108	-20.2807;
	69	71	0	0.0375	0	2500	0	0	0	0	1	-360	360	21.5287	-56.6178	-21.5287	57.8478;
	70	71	0	0.049	0	2500	0	0	0	0	1	-360	360	-55.2639	-1.3032	55.2639	2.5944;
	71	72	0.00053	0.00290313381	0.15	2500	0	0	0	0	1	-360	360	-633.1769	-34.5457	635.0092	27.0957;
	73	74	0.00022	0.0042149202	0.51	2500	0	0	0	0	1	-360	360	1916.2459	277.3616	-1906.5893	-135.4007;
	73	74	0.00022	0.0042149202	0.51	2500	0	0	0	0	1	-360	360	1916.2459	277.3616	-1906.5893	-135.4007;
	74	77	0.0003	0.0043	0.08	2500	0	0	0	0	1	-360	360	252.2547	57.4931	-252.0116	-60.6323;
	74	78	0.0005	0.0045	0.32	2500	0	0	0	0	1	-360	360	1548.4842	114.7071	-1533.9607	-10.2551;
	74	78	0.0005	0.0045	0.32	2500	0	0	0	0	1	-360	360	1548.4842	114.7071	-1533.9607	-10.2551;
	76	77	0.003	0.0068	1.37	2500	0	0	0	0	1	-360	360	41.4306	-143.0528	-41.0875	31.5154;
	78	79	0.0003	0.0153	0	2500	0	0	0	0	1	-360	360	-484.6521	28.3097	485.5249	16.2049;
	78	80	0.00135	0.0125157324	0.75	2500	0	0	0	0	1	-360	360	647.5728	-95.5632	-640.5136	99.9862;
	78	81	0.0005	0.0276	0	2500	0	0	0	0	1	-360	360	104.6074	-2.3781	-104.5398	6.1082;
	78	82	5e-05	0.00662344603	0	2500	0	0	0	0	1	-360	360	823.8791	21.1390	-823.4598	34.3962;
	40	41	0	0.0161	0	2500	0	0	1	0	1	-360	360	332.2260	-337.3806	-332.2260	372.7331;
	49	48	0.0156	0.1536	0	2500	0	0	1	0	1	-360	360	-147.1505	7.1285	150.8036	28.8399;
	54	52	0.002	0.0233	0	789.941803	0	0	1	0	1	-360	360	340.5232	9.2119	-338.6047	13.1385;
	54	55	0	0.013	0	2500	0	0	1	0	1	-360	360	435.8653	11.9820	-435.8653	8.4493;
	56	57	0	0.142	0	2500	0	0	1	0	1	-360	360	47.0124	-9.0167	-47.0124	11.8289;
	58	59	0	0.0093	0	2500	0	0	1	0	1	-360	360	549.0317	19.2143	-549.0317	5.1717;
	60	61	0	0.064	0	2500	0	0	1	0	1	-360	360	21.4938	-0.9900	-21.4938	1.2405;
	75	76	0.0001	0.0074	0	2500	0	0	1	0	1	-360	360	5.7534	12.0004	-5.7532	-11.9843;
	38	39	0.00131	0.01997	0.51614	1216	2454	1804	0	0	1	-360	360	642.2329	234.1498	-635.9700	-187.8887;
	73	9002	0.00081	0.01237	0.31971	1216	2454	1804	0	0	1	-360	360	507.8850	50.2235	-505.4082	-39.4889;
	9002	74	0.00037	0.00563	0.14565	1216	2454	1804	0	0	1	-360	360	320.6129	34.0109	-320.1517	-39.1464;
	74	78	0.0009	0.015	0	5000	5000	5000	0	0	1	-360	360	464.0090	62.1772	-461.6357	-22.6220;
	77	78	0.0012	0.02	0	5000	5000	5000	0	0	1	-360	360	293.0991	29.1169	-291.8365	-8.0737;
	78	81	0.00072	0.012	0	5000	5000	5000	0	0	1	-360	360	239.7663	-15.4969	-239.2532	24.0483;
	78	79	0.0006	0.01	0	5000	5000	5000	0	0	1	-360	360	-737.9837	73.0533	742.0571	-5.1642;
	78	82	6e-05	0.00215046949	0	5000	5000	5000	0	0	1	-360	360	2537.4318	13.4672	-2532.6628	157.4578;
	78	9003	0.00012	0.00430093898	0	5000	5000	5000	0	0	1	-360	360	-675.7504	28.6747	676.4280	-4.3869;
	9003	80	0.00012	0.00430093898	0	5000	5000	5000	0	0	1	-360	360	2580.6501	24.4749	-2570.7863	329.0536;
	81	80	0.00018	0.00645140847	0	5000	5000	5000	0	0	1	-360	360	821.6071	-41.1221	-820.1058	94.9300;
	39	9001	0.00021	0.00752664322	0	5000	5000	5000	0	0	1	-360	360	248.7120	69.2244	-248.5570	-63.6671;
	9001	73	0.0015	0.025	0	5000	5000	5000	0	0	1	-360	360	248.5570	63.6671	-247.4495	-45.2081;
	73	9002	0.00081	0.01237	0.31972	1216	2454	1804	0	0	1	-360	360	507.8850	50.2231	-505.4082	-39.4893;
	9002	74	0.00037	0.00563	0.14542	1216	2454	1804	0	0	1	-360	360	320.6129	34.0206	-320.1517	-39.1369;
];

%%-----  OPF Data  -----%%
%% generator cost data
%	1	startup	shutdown	n	x1	y1	...	xn	yn
%	2	startup	shutdown	n	c(n-1)	...	c0
mpc.gencost = [
	2	0	0	2	0	0;
	2	0	0	2	0	0;
	2	0	0	2	0	0;
	2	0	0	2	0	0;
	2	0	0	2	0	0;
	2	0	0	2	0	0;
	2	0	0	2	0	0;
	2	0	0	2	0	0;
	2	0	0	2	0	0;
	2	0	0	2	0	0;
	2	0	0	2	0	0;
	2	0	0	2	0	0;
	2	0	0	2	0	0;
	2	0	0	2	0	0;
	2	0	0	2	0	0;
	2	0	0	2	0	0;
	2	0	0	2	0	0;
	2	0	0	2	0	0;
	2	0	0	2	0	0;
	2	0	0	2	0	0;
	2	0	0	2	0	0;
	2	0	0	2	0	0;
	2	0	0	2	0	0;
	2	0	0	2	0	0;
	2	0	0	2	0	0;
	2	0	0	2	0	0;
	2	0	0	2	0	0;
	2	0	0	2	0	0;
	2	0	0	2	0	0;
	2	0	0	2	0	0;
	2	0	0	2	0	0;
	2	0	0	2	0	0;
	2	0	0	2	0	0;
	2	0	0	2	0	0;
	2	0	0	2	0	0;
	2	0	0	2	0	0;
	2	0	0	2	0	0;
	2	0	0	2	0	0;
	2	0	0	2	0	0;
	2	0	0	2	0	0;
	2	0	0	2	0	0;
	2	0	0	2	0	0;
	2	0	0	2	0	0;
	2	0	0	2	0	0;
	2	0	0	2	0	0;
	2	0	0	2	0	0;
	2	0	0	2	0	0;
	2	0	0	2	0	0;
	2	0	0	2	0	0;
];

%% generator unit type (see GENTYPES)
mpc.gentype = {
	'AG';
	'AG';
	'AG';
	'AG';
	'AG';
	'AG';
	'AG';
	'AG';
	'AG';
	'AG';
	'AG';
	'AG';
	'AG';
	'AG';
	'AG';
	'AG';
	'AG';
	'AG';
	'AG';
	'AG';
	'AG';
	'AG';
	'AG';
	'AG';
	'AG';
	'AG';
	'AG';
	'AG';
	'AG';
	'AG';
	'AG';
	'AG';
	'AG';
	'AG';
	'AG';
	'AG';
	'AG';
	'AG';
	'AG';
	'AG';
	'AG';
	'EX';
	'EX';
	'EX';
	'EX';
	'EX';
	'EX';
	'EX';
	'EX';
};

%% generator fuel type (see GENFUELS)
mpc.genfuel = {
	'aggregate_pv_generator';
	'aggregate_pv_generator';
	'aggregate_pv_generator';
	'aggregate_pv_generator';
	'aggregate_pv_generator';
	'aggregate_pv_generator';
	'aggregate_pv_generator';
	'aggregate_pv_generator';
	'aggregate_pv_generator';
	'aggregate_pv_generator';
	'aggregate_pv_generator';
	'aggregate_pv_generator';
	'aggregate_pv_generator';
	'aggregate_pv_generator';
	'aggregate_pv_generator';
	'aggregate_pv_generator';
	'aggregate_pv_generator';
	'aggregate_pv_generator';
	'aggregate_pv_generator';
	'aggregate_pv_generator_p_injection';
	'aggregate_pv_generator_remote_q_control';
	'controllable_q_device';
	'aggregate_pv_generator';
	'controllable_q_device';
	'controllable_q_device';
	'aggregate_pv_generator';
	'controllable_q_device';
	'aggregate_pv_generator';
	'aggregate_pv_generator';
	'controllable_q_device';
	'aggregate_pv_generator';
	'controllable_q_device';
	'aggregate_pv_generator';
	'controllable_q_device';
	'aggregate_pv_generator';
	'aggregate_pv_generator';
	'controllable_q_device';
	'aggregate_pv_generator';
	'reference_boundary_equivalent';
	'aggregate_pv_generator';
	'aggregate_pv_generator';
	'external_schedule';
	'external_schedule';
	'external_schedule';
	'external_schedule';
	'external_schedule';
	'external_schedule';
	'external_schedule';
	'external_schedule';
};

%% bus names
mpc.bus_name = {
	'NEW SEATHED ';
	'GILBOA      ';
	'LEEDS       ';
	'NEW SEATHED ';
	'ROTTERDAM   ';
	'ALBANY      ';
	'EDIC        ';
	'PORTER      ';
	'PORTER      ';
	'COLTON      ';
	'MOSES W     ';
	'MOSES E     ';
	'PLATTSBURGH ';
	'CLAY        ';
	'CLAY        ';
	'ROCHESTER   ';
	'ROCHESTER   ';
	'NIAGARA W   ';
	'NIAGARA E   ';
	'HUNTLEY     ';
	'HUNTLEY     ';
	'GARDENVILLE ';
	'GARDENVILLE ';
	'DUNKIRK     ';
	'DUNKIRK     ';
	'STOLLE RD   ';
	'MEYER       ';
	'MEYER       ';
	'GESONIDGE   ';
	'WATERCURE   ';
	'WRHL        ';
	'HILLSIDE    ';
	'BINGHAMTON  ';
	'BINGHAMTON  ';
	'BINGHAMTON  ';
	'LAPEER      ';
	'PLEASANT VLY';
	'MILLWOOD    ';
	'RAMAPO      ';
	'RAMAPO      ';
	'BUCHANAN    ';
	'CE UG       ';
	'RAV A-3     ';
	'NORTHPORT   ';
	'GOETHALS    ';
	'AK-3        ';
	'KNICKERBOCKER';
	'WOOD STREET';
	'EAST GARDEN CITY';
};
